Hey, this is a test to veryify that commit is working properly.

This next line has been added to see what the differences look like when comparing
two versions of a file side by side.

As a final test, I will be adding this last line to practice reverting to past versions
of this text file.

Yet another line added, for testing purposes.'

New line.